/*--------------------------------*- C++ -*----------------------------------*\
| =========                 |                                                 |
| \\      /  F ield         | OpenFOAM: The Open Source CFD Toolbox           |
|  \\    /   O peration     | Version:  xxxxxxx                               |
|   \\  /    A nd           | Revision: exported                              |
|    \\/     M anipulation  | Web:      http://www.OpenFOAM.org               |
\*---------------------------------------------------------------------------*/
FoamFile
{
    version     2.0;
    format      ascii;
    class       polyBoundaryMesh;
    location    "constant/polyMesh";
    object      boundary;
}
// * * * * * * * * * * * * * * * * * * * * * * * * * * * * * * * * * * * * * //


6
(
    wall1
    {
        type            patch;
        nFaces          832;
        startFace       31552;
    }
    wall2
    {
        type            patch;
        nFaces          512;
        startFace       32384;
    }
    wall3
    {
        type            patch;
        nFaces          384;
        startFace       32896;
    }
    procBoundary3to0
    {
        type            processor;
        nFaces          64;
        startFace       33280;
        matchTolerance  0.000100;
        myProcNo        3;
        neighbProcNo    0;
    }
    procBoundary3to1
    {
        type            processor;
        nFaces          320;
        startFace       33344;
        matchTolerance  0.000100;
        myProcNo        3;
        neighbProcNo    1;
    }
    procBoundary3to2
    {
        type            processor;
        nFaces          320;
        startFace       33664;
        matchTolerance  0.000100;
        myProcNo        3;
        neighbProcNo    2;
    }
)

// ************************************************************************* //