/*--------------------------------*- C++ -*----------------------------------*\
| =========                 |                                                 |
| \\      /  F ield         | OpenFOAM: The Open Source CFD Toolbox           |
|  \\    /   O peration     | Version:  xxxxxxx                               |
|   \\  /    A nd           | Revision: exported                              |
|    \\/     M anipulation  | Web:      http://www.OpenFOAM.org               |
\*---------------------------------------------------------------------------*/
FoamFile
{
    version     2.0;
    format      ascii;
    class       polyBoundaryMesh;
    location    "constant/polyMesh";
    object      boundary;
}
// * * * * * * * * * * * * * * * * * * * * * * * * * * * * * * * * * * * * * //


5
(
    wall1
    {
        type            patch;
        nFaces          1216;
        startFace       33408;
    }
    wall2
    {
        type            patch;
        nFaces          576;
        startFace       34624;
    }
    wall3
    {
        type            patch;
        nFaces          384;
        startFace       35200;
    }
    procBoundary2to0
    {
        type            processor;
        nFaces          320;
        startFace       35584;
        matchTolerance  0.000100;
        myProcNo        2;
        neighbProcNo    0;
    }
    procBoundary2to3
    {
        type            processor;
        nFaces          320;
        startFace       35904;
        matchTolerance  0.000100;
        myProcNo        2;
        neighbProcNo    3;
    }
)

// ************************************************************************* //