/*--------------------------------*- C++ -*----------------------------------*\
| =========                 |                                                 |
| \\      /  F ield         | OpenFOAM: The Open Source CFD Toolbox           |
|  \\    /   O peration     | Version:  xxxxxxx                               |
|   \\  /    A nd           | Revision: exported                              |
|    \\/     M anipulation  | Web:      http://www.OpenFOAM.org               |
\*---------------------------------------------------------------------------*/
FoamFile
{
    version     2.0;
    format      ascii;
    class       polyBoundaryMesh;
    location    "constant/polyMesh";
    object      boundary;
}
// * * * * * * * * * * * * * * * * * * * * * * * * * * * * * * * * * * * * * //


6
(
    wall1
    {
        type            patch;
        nFaces          14;
        startFace       30;
    }
    wall2
    {
        type            patch;
        nFaces          5;
        startFace       44;
    }
    wall3
    {
        type            patch;
        nFaces          5;
        startFace       49;
    }
    procBoundary4to2
    {
        type            processor;
        nFaces          1;
        startFace       54;
        matchTolerance  0.000100;
        myProcNo        4;
        neighbProcNo    2;
    }
    procBoundary4to3
    {
        type            processor;
        nFaces          1;
        startFace       55;
        matchTolerance  0.000100;
        myProcNo        4;
        neighbProcNo    3;
    }
    procBoundary4to5
    {
        type            processor;
        nFaces          1;
        startFace       56;
        matchTolerance  0.000100;
        myProcNo        4;
        neighbProcNo    5;
    }
)

// ************************************************************************* //