/*--------------------------------*- C++ -*----------------------------------*\
| =========                 |                                                 |
| \\      /  F ield         | OpenFOAM: The Open Source CFD Toolbox           |
|  \\    /   O peration     | Version:  xxxxxxx                               |
|   \\  /    A nd           | Revision: exported                              |
|    \\/     M anipulation  | Web:      http://www.OpenFOAM.org               |
\*---------------------------------------------------------------------------*/
FoamFile
{
    version     2.0;
    format      ascii;
    class       polyBoundaryMesh;
    location    "constant/polyMesh";
    object      boundary;
}
// * * * * * * * * * * * * * * * * * * * * * * * * * * * * * * * * * * * * * //


6
(
    wall1
    {
        type            patch;
        nFaces          9;
        startFace       29;
    }
    wall2
    {
        type            patch;
        nFaces          5;
        startFace       38;
    }
    wall3
    {
        type            patch;
        nFaces          4;
        startFace       43;
    }
    procBoundary5to0
    {
        type            processor;
        nFaces          1;
        startFace       47;
        matchTolerance  0.000100;
        myProcNo        5;
        neighbProcNo    0;
    }
    procBoundary5to2
    {
        type            processor;
        nFaces          1;
        startFace       48;
        matchTolerance  0.000100;
        myProcNo        5;
        neighbProcNo    2;
    }
    procBoundary5to4
    {
        type            processor;
        nFaces          1;
        startFace       49;
        matchTolerance  0.000100;
        myProcNo        5;
        neighbProcNo    4;
    }
)

// ************************************************************************* //